<?xml version="1.0" encoding="UTF-8"?>

<!-- generated on 2023-08-20 16:57:43.626677 by randomTrips.py v1_18_0+0000-03ecfdea036
<configuration>
    <net-file value="NgaTu1.net"/>
    <route-file value="ngatu7.rou.xml"/>
    <end value="100.0"/>
    <period value="0.1"/>
</configuration>
-->

<!-- generated on 2023-08-20 16:57:43 by Eclipse SUMO duarouter Version 1.18.0
<configuration xmlns:xsi="http://www.w3.org/2001/XMLSchema-instance" xsi:noNamespaceSchemaLocation="http://sumo.dlr.de/xsd/duarouterConfiguration.xsd">

    <input>
        <net-file value="NgaTu1.net"/>
        <route-files value="trips.trips.xml"/>
    </input>

    <output>
        <output-file value="ngatu7.rou.xml"/>
        <alternatives-output value="NUL"/>
    </output>

    <time>
        <begin value="0"/>
        <end value="100.0"/>
    </time>

    <report>
        <no-warnings value="true"/>
        <ignore-errors value="true"/>
        <no-step-log value="true"/>
    </report>

</configuration>
-->

<routes xmlns:xsi="http://www.w3.org/2001/XMLSchema-instance" xsi:noNamespaceSchemaLocation="http://sumo.dlr.de/xsd/routes_file.xsd">
    <vehicle id="0" depart="0.00">
        <route edges="d3GiaoLo GiaoLod1"/>
    </vehicle>
    <vehicle id="1" depart="0.10">
        <route edges="d2GiaoLo GiaoLod1"/>
    </vehicle>
    <vehicle id="3" depart="0.30">
        <route edges="d4GiaoLo GiaoLod1"/>
    </vehicle>
    <vehicle id="4" depart="0.40">
        <route edges="d2GiaoLo GiaoLod1"/>
    </vehicle>
    <vehicle id="5" depart="0.50">
        <route edges="d1GiaoLo GiaoLod3"/>
    </vehicle>
    <vehicle id="8" depart="0.80">
        <route edges="d1GiaoLo GiaoLod3"/>
    </vehicle>
    <vehicle id="9" depart="0.90">
        <route edges="d4GiaoLo GiaoLod1"/>
    </vehicle>
    <vehicle id="10" depart="1.00">
        <route edges="d4GiaoLo GiaoLod3"/>
    </vehicle>
    <vehicle id="11" depart="1.10">
        <route edges="d2GiaoLo GiaoLod1"/>
    </vehicle>
    <vehicle id="12" depart="1.20">
        <route edges="d4GiaoLo GiaoLod2"/>
    </vehicle>
    <vehicle id="14" depart="1.40">
        <route edges="d4GiaoLo GiaoLod3"/>
    </vehicle>
    <vehicle id="15" depart="1.50">
        <route edges="d4GiaoLo GiaoLod3"/>
    </vehicle>
    <vehicle id="16" depart="1.60">
        <route edges="d3GiaoLo GiaoLod4"/>
    </vehicle>
    <vehicle id="17" depart="1.70">
        <route edges="d2GiaoLo GiaoLod3"/>
    </vehicle>
    <vehicle id="18" depart="1.80">
        <route edges="d4GiaoLo GiaoLod3"/>
    </vehicle>
    <vehicle id="19" depart="1.90">
        <route edges="d4GiaoLo GiaoLod3"/>
    </vehicle>
    <vehicle id="20" depart="2.00">
        <route edges="d3GiaoLo GiaoLod1"/>
    </vehicle>
    <vehicle id="21" depart="2.10">
        <route edges="d1GiaoLo GiaoLod2"/>
    </vehicle>
    <vehicle id="23" depart="2.30">
        <route edges="d1GiaoLo GiaoLod2"/>
    </vehicle>
    <vehicle id="24" depart="2.40">
        <route edges="d3GiaoLo GiaoLod2"/>
    </vehicle>
    <vehicle id="25" depart="2.50">
        <route edges="d2GiaoLo GiaoLod1"/>
    </vehicle>
    <vehicle id="26" depart="2.60">
        <route edges="d2GiaoLo GiaoLod4"/>
    </vehicle>
    <vehicle id="28" depart="2.80">
        <route edges="d1GiaoLo GiaoLod3"/>
    </vehicle>
    <vehicle id="29" depart="2.90">
        <route edges="d1GiaoLo GiaoLod2"/>
    </vehicle>
    <vehicle id="30" depart="3.00">
        <route edges="d4GiaoLo GiaoLod3"/>
    </vehicle>
    <vehicle id="35" depart="3.50">
        <route edges="d1GiaoLo GiaoLod4"/>
    </vehicle>
    <vehicle id="36" depart="3.60">
        <route edges="d4GiaoLo GiaoLod2"/>
    </vehicle>
    <vehicle id="37" depart="3.70">
        <route edges="d3GiaoLo GiaoLod2"/>
    </vehicle>
    <vehicle id="38" depart="3.80">
        <route edges="d4GiaoLo GiaoLod2"/>
    </vehicle>
    <vehicle id="39" depart="3.90">
        <route edges="d2GiaoLo GiaoLod1"/>
    </vehicle>
    <vehicle id="40" depart="4.00">
        <route edges="d3GiaoLo GiaoLod2"/>
    </vehicle>
    <vehicle id="41" depart="4.10">
        <route edges="d3GiaoLo GiaoLod4"/>
    </vehicle>
    <vehicle id="42" depart="4.20">
        <route edges="d2GiaoLo GiaoLod1"/>
    </vehicle>
    <vehicle id="43" depart="4.30">
        <route edges="d4GiaoLo GiaoLod3"/>
    </vehicle>
    <vehicle id="45" depart="4.50">
        <route edges="d1GiaoLo GiaoLod3"/>
    </vehicle>
    <vehicle id="46" depart="4.60">
        <route edges="d4GiaoLo GiaoLod2"/>
    </vehicle>
    <vehicle id="47" depart="4.70">
        <route edges="d1GiaoLo GiaoLod2"/>
    </vehicle>
    <vehicle id="48" depart="4.80">
        <route edges="d4GiaoLo GiaoLod3"/>
    </vehicle>
    <vehicle id="50" depart="5.00">
        <route edges="d1GiaoLo GiaoLod3"/>
    </vehicle>
    <vehicle id="52" depart="5.20">
        <route edges="d2GiaoLo GiaoLod3"/>
    </vehicle>
    <vehicle id="53" depart="5.30">
        <route edges="d1GiaoLo GiaoLod2"/>
    </vehicle>
    <vehicle id="54" depart="5.40">
        <route edges="d2GiaoLo GiaoLod4"/>
    </vehicle>
    <vehicle id="55" depart="5.50">
        <route edges="d4GiaoLo GiaoLod2"/>
    </vehicle>
    <vehicle id="56" depart="5.60">
        <route edges="d3GiaoLo GiaoLod1"/>
    </vehicle>
    <vehicle id="58" depart="5.80">
        <route edges="d2GiaoLo GiaoLod3"/>
    </vehicle>
    <vehicle id="59" depart="5.90">
        <route edges="d3GiaoLo GiaoLod1"/>
    </vehicle>
    <vehicle id="60" depart="6.00">
        <route edges="d4GiaoLo GiaoLod3"/>
    </vehicle>
    <vehicle id="61" depart="6.10">
        <route edges="d4GiaoLo GiaoLod3"/>
    </vehicle>
    <vehicle id="62" depart="6.20">
        <route edges="d1GiaoLo GiaoLod2"/>
    </vehicle>
    <vehicle id="63" depart="6.30">
        <route edges="d1GiaoLo GiaoLod4"/>
    </vehicle>
    <vehicle id="65" depart="6.50">
        <route edges="d2GiaoLo GiaoLod1"/>
    </vehicle>
    <vehicle id="67" depart="6.70">
        <route edges="d1GiaoLo GiaoLod2"/>
    </vehicle>
    <vehicle id="68" depart="6.80">
        <route edges="d1GiaoLo GiaoLod4"/>
    </vehicle>
    <vehicle id="69" depart="6.90">
        <route edges="d4GiaoLo GiaoLod1"/>
    </vehicle>
    <vehicle id="70" depart="7.00">
        <route edges="d2GiaoLo GiaoLod3"/>
    </vehicle>
    <vehicle id="71" depart="7.10">
        <route edges="d2GiaoLo GiaoLod4"/>
    </vehicle>
    <vehicle id="72" depart="7.20">
        <route edges="d2GiaoLo GiaoLod1"/>
    </vehicle>
    <vehicle id="74" depart="7.40">
        <route edges="d1GiaoLo GiaoLod2"/>
    </vehicle>
    <vehicle id="75" depart="7.50">
        <route edges="d4GiaoLo GiaoLod3"/>
    </vehicle>
    <vehicle id="76" depart="7.60">
        <route edges="d2GiaoLo GiaoLod3"/>
    </vehicle>
    <vehicle id="78" depart="7.80">
        <route edges="d2GiaoLo GiaoLod3"/>
    </vehicle>
    <vehicle id="80" depart="8.00">
        <route edges="d1GiaoLo GiaoLod3"/>
    </vehicle>
    <vehicle id="81" depart="8.10">
        <route edges="d1GiaoLo GiaoLod4"/>
    </vehicle>
    <vehicle id="82" depart="8.20">
        <route edges="d4GiaoLo GiaoLod1"/>
    </vehicle>
    <vehicle id="83" depart="8.30">
        <route edges="d1GiaoLo GiaoLod3"/>
    </vehicle>
    <vehicle id="85" depart="8.50">
        <route edges="d4GiaoLo GiaoLod3"/>
    </vehicle>
    <vehicle id="86" depart="8.60">
        <route edges="d2GiaoLo GiaoLod4"/>
    </vehicle>
    <vehicle id="87" depart="8.70">
        <route edges="d4GiaoLo GiaoLod1"/>
    </vehicle>
    <vehicle id="88" depart="8.80">
        <route edges="d1GiaoLo GiaoLod2"/>
    </vehicle>
    <vehicle id="91" depart="9.10">
        <route edges="d4GiaoLo GiaoLod1"/>
    </vehicle>
    <vehicle id="93" depart="9.30">
        <route edges="d4GiaoLo GiaoLod1"/>
    </vehicle>
    <vehicle id="94" depart="9.40">
        <route edges="d1GiaoLo GiaoLod2"/>
    </vehicle>
    <vehicle id="96" depart="9.60">
        <route edges="d1GiaoLo GiaoLod4"/>
    </vehicle>
    <vehicle id="97" depart="9.70">
        <route edges="d2GiaoLo GiaoLod4"/>
    </vehicle>
    <vehicle id="98" depart="9.80">
        <route edges="d3GiaoLo GiaoLod1"/>
    </vehicle>
    <vehicle id="101" depart="10.10">
        <route edges="d4GiaoLo GiaoLod1"/>
    </vehicle>
    <vehicle id="102" depart="10.20">
        <route edges="d2GiaoLo GiaoLod1"/>
    </vehicle>
    <vehicle id="103" depart="10.30">
        <route edges="d2GiaoLo GiaoLod1"/>
    </vehicle>
    <vehicle id="104" depart="10.40">
        <route edges="d2GiaoLo GiaoLod4"/>
    </vehicle>
    <vehicle id="105" depart="10.50">
        <route edges="d2GiaoLo GiaoLod4"/>
    </vehicle>
    <vehicle id="109" depart="10.90">
        <route edges="d1GiaoLo GiaoLod2"/>
    </vehicle>
    <vehicle id="110" depart="11.00">
        <route edges="d4GiaoLo GiaoLod3"/>
    </vehicle>
    <vehicle id="112" depart="11.20">
        <route edges="d1GiaoLo GiaoLod3"/>
    </vehicle>
    <vehicle id="113" depart="11.30">
        <route edges="d3GiaoLo GiaoLod4"/>
    </vehicle>
    <vehicle id="114" depart="11.40">
        <route edges="d1GiaoLo GiaoLod4"/>
    </vehicle>
    <vehicle id="118" depart="11.80">
        <route edges="d4GiaoLo GiaoLod1"/>
    </vehicle>
    <vehicle id="120" depart="12.00">
        <route edges="d2GiaoLo GiaoLod3"/>
    </vehicle>
    <vehicle id="121" depart="12.10">
        <route edges="d3GiaoLo GiaoLod4"/>
    </vehicle>
    <vehicle id="122" depart="12.20">
        <route edges="d1GiaoLo GiaoLod3"/>
    </vehicle>
    <vehicle id="123" depart="12.30">
        <route edges="d1GiaoLo GiaoLod2"/>
    </vehicle>
    <vehicle id="124" depart="12.40">
        <route edges="d3GiaoLo GiaoLod2"/>
    </vehicle>
    <vehicle id="125" depart="12.50">
        <route edges="d2GiaoLo GiaoLod4"/>
    </vehicle>
    <vehicle id="126" depart="12.60">
        <route edges="d1GiaoLo GiaoLod2"/>
    </vehicle>
    <vehicle id="129" depart="12.90">
        <route edges="d2GiaoLo GiaoLod4"/>
    </vehicle>
    <vehicle id="131" depart="13.10">
        <route edges="d2GiaoLo GiaoLod1"/>
    </vehicle>
    <vehicle id="132" depart="13.20">
        <route edges="d4GiaoLo GiaoLod3"/>
    </vehicle>
    <vehicle id="133" depart="13.30">
        <route edges="d3GiaoLo GiaoLod4"/>
    </vehicle>
    <vehicle id="134" depart="13.40">
        <route edges="d3GiaoLo GiaoLod1"/>
    </vehicle>
    <vehicle id="135" depart="13.50">
        <route edges="d4GiaoLo GiaoLod2"/>
    </vehicle>
    <vehicle id="136" depart="13.60">
        <route edges="d3GiaoLo GiaoLod4"/>
    </vehicle>
    <vehicle id="138" depart="13.80">
        <route edges="d1GiaoLo GiaoLod3"/>
    </vehicle>
    <vehicle id="139" depart="13.90">
        <route edges="d2GiaoLo GiaoLod3"/>
    </vehicle>
    <vehicle id="140" depart="14.00">
        <route edges="d3GiaoLo GiaoLod1"/>
    </vehicle>
    <vehicle id="141" depart="14.10">
        <route edges="d3GiaoLo GiaoLod2"/>
    </vehicle>
    <vehicle id="142" depart="14.20">
        <route edges="d2GiaoLo GiaoLod4"/>
    </vehicle>
    <vehicle id="143" depart="14.30">
        <route edges="d4GiaoLo GiaoLod1"/>
    </vehicle>
    <vehicle id="145" depart="14.50">
        <route edges="d1GiaoLo GiaoLod4"/>
    </vehicle>
    <vehicle id="146" depart="14.60">
        <route edges="d3GiaoLo GiaoLod2"/>
    </vehicle>
    <vehicle id="148" depart="14.80">
        <route edges="d2GiaoLo GiaoLod1"/>
    </vehicle>
    <vehicle id="149" depart="14.90">
        <route edges="d1GiaoLo GiaoLod4"/>
    </vehicle>
    <vehicle id="150" depart="15.00">
        <route edges="d4GiaoLo GiaoLod3"/>
    </vehicle>
    <vehicle id="151" depart="15.10">
        <route edges="d4GiaoLo GiaoLod3"/>
    </vehicle>
    <vehicle id="153" depart="15.30">
        <route edges="d2GiaoLo GiaoLod4"/>
    </vehicle>
    <vehicle id="155" depart="15.50">
        <route edges="d4GiaoLo GiaoLod1"/>
    </vehicle>
    <vehicle id="158" depart="15.80">
        <route edges="d2GiaoLo GiaoLod3"/>
    </vehicle>
    <vehicle id="159" depart="15.90">
        <route edges="d1GiaoLo GiaoLod4"/>
    </vehicle>
    <vehicle id="162" depart="16.20">
        <route edges="d1GiaoLo GiaoLod3"/>
    </vehicle>
    <vehicle id="163" depart="16.30">
        <route edges="d2GiaoLo GiaoLod4"/>
    </vehicle>
    <vehicle id="165" depart="16.50">
        <route edges="d4GiaoLo GiaoLod2"/>
    </vehicle>
    <vehicle id="166" depart="16.60">
        <route edges="d4GiaoLo GiaoLod1"/>
    </vehicle>
    <vehicle id="168" depart="16.80">
        <route edges="d1GiaoLo GiaoLod4"/>
    </vehicle>
    <vehicle id="170" depart="17.00">
        <route edges="d4GiaoLo GiaoLod1"/>
    </vehicle>
    <vehicle id="172" depart="17.20">
        <route edges="d2GiaoLo GiaoLod4"/>
    </vehicle>
    <vehicle id="173" depart="17.30">
        <route edges="d4GiaoLo GiaoLod2"/>
    </vehicle>
    <vehicle id="174" depart="17.40">
        <route edges="d3GiaoLo GiaoLod2"/>
    </vehicle>
    <vehicle id="175" depart="17.50">
        <route edges="d4GiaoLo GiaoLod3"/>
    </vehicle>
    <vehicle id="176" depart="17.60">
        <route edges="d4GiaoLo GiaoLod1"/>
    </vehicle>
    <vehicle id="177" depart="17.70">
        <route edges="d4GiaoLo GiaoLod1"/>
    </vehicle>
    <vehicle id="178" depart="17.80">
        <route edges="d4GiaoLo GiaoLod2"/>
    </vehicle>
    <vehicle id="179" depart="17.90">
        <route edges="d1GiaoLo GiaoLod2"/>
    </vehicle>
    <vehicle id="180" depart="18.00">
        <route edges="d3GiaoLo GiaoLod2"/>
    </vehicle>
    <vehicle id="182" depart="18.20">
        <route edges="d2GiaoLo GiaoLod3"/>
    </vehicle>
    <vehicle id="183" depart="18.30">
        <route edges="d2GiaoLo GiaoLod3"/>
    </vehicle>
    <vehicle id="184" depart="18.40">
        <route edges="d1GiaoLo GiaoLod4"/>
    </vehicle>
    <vehicle id="187" depart="18.70">
        <route edges="d2GiaoLo GiaoLod1"/>
    </vehicle>
    <vehicle id="188" depart="18.80">
        <route edges="d3GiaoLo GiaoLod2"/>
    </vehicle>
    <vehicle id="189" depart="18.90">
        <route edges="d2GiaoLo GiaoLod4"/>
    </vehicle>
    <vehicle id="190" depart="19.00">
        <route edges="d3GiaoLo GiaoLod2"/>
    </vehicle>
    <vehicle id="193" depart="19.30">
        <route edges="d1GiaoLo GiaoLod2"/>
    </vehicle>
    <vehicle id="194" depart="19.40">
        <route edges="d4GiaoLo GiaoLod3"/>
    </vehicle>
    <vehicle id="195" depart="19.50">
        <route edges="d4GiaoLo GiaoLod3"/>
    </vehicle>
    <vehicle id="196" depart="19.60">
        <route edges="d2GiaoLo GiaoLod3"/>
    </vehicle>
    <vehicle id="197" depart="19.70">
        <route edges="d1GiaoLo GiaoLod2"/>
    </vehicle>
    <vehicle id="198" depart="19.80">
        <route edges="d2GiaoLo GiaoLod3"/>
    </vehicle>
    <vehicle id="199" depart="19.90">
        <route edges="d3GiaoLo GiaoLod2"/>
    </vehicle>
    <vehicle id="200" depart="20.00">
        <route edges="d2GiaoLo GiaoLod1"/>
    </vehicle>
    <vehicle id="201" depart="20.10">
        <route edges="d2GiaoLo GiaoLod4"/>
    </vehicle>
    <vehicle id="202" depart="20.20">
        <route edges="d4GiaoLo GiaoLod1"/>
    </vehicle>
    <vehicle id="203" depart="20.30">
        <route edges="d1GiaoLo GiaoLod3"/>
    </vehicle>
    <vehicle id="204" depart="20.40">
        <route edges="d3GiaoLo GiaoLod2"/>
    </vehicle>
    <vehicle id="206" depart="20.60">
        <route edges="d3GiaoLo GiaoLod1"/>
    </vehicle>
    <vehicle id="208" depart="20.80">
        <route edges="d1GiaoLo GiaoLod2"/>
    </vehicle>
    <vehicle id="209" depart="20.90">
        <route edges="d4GiaoLo GiaoLod1"/>
    </vehicle>
    <vehicle id="210" depart="21.00">
        <route edges="d2GiaoLo GiaoLod3"/>
    </vehicle>
    <vehicle id="211" depart="21.10">
        <route edges="d1GiaoLo GiaoLod3"/>
    </vehicle>
    <vehicle id="212" depart="21.20">
        <route edges="d2GiaoLo GiaoLod1"/>
    </vehicle>
    <vehicle id="213" depart="21.30">
        <route edges="d3GiaoLo GiaoLod1"/>
    </vehicle>
    <vehicle id="215" depart="21.50">
        <route edges="d1GiaoLo GiaoLod2"/>
    </vehicle>
    <vehicle id="216" depart="21.60">
        <route edges="d1GiaoLo GiaoLod4"/>
    </vehicle>
    <vehicle id="217" depart="21.70">
        <route edges="d3GiaoLo GiaoLod1"/>
    </vehicle>
    <vehicle id="218" depart="21.80">
        <route edges="d1GiaoLo GiaoLod4"/>
    </vehicle>
    <vehicle id="219" depart="21.90">
        <route edges="d2GiaoLo GiaoLod4"/>
    </vehicle>
    <vehicle id="220" depart="22.00">
        <route edges="d3GiaoLo GiaoLod4"/>
    </vehicle>
    <vehicle id="221" depart="22.10">
        <route edges="d3GiaoLo GiaoLod4"/>
    </vehicle>
    <vehicle id="222" depart="22.20">
        <route edges="d4GiaoLo GiaoLod3"/>
    </vehicle>
    <vehicle id="224" depart="22.40">
        <route edges="d4GiaoLo GiaoLod3"/>
    </vehicle>
    <vehicle id="225" depart="22.50">
        <route edges="d4GiaoLo GiaoLod3"/>
    </vehicle>
    <vehicle id="227" depart="22.70">
        <route edges="d1GiaoLo GiaoLod3"/>
    </vehicle>
    <vehicle id="228" depart="22.80">
        <route edges="d4GiaoLo GiaoLod3"/>
    </vehicle>
    <vehicle id="229" depart="22.90">
        <route edges="d3GiaoLo GiaoLod2"/>
    </vehicle>
    <vehicle id="230" depart="23.00">
        <route edges="d1GiaoLo GiaoLod2"/>
    </vehicle>
    <vehicle id="232" depart="23.20">
        <route edges="d3GiaoLo GiaoLod1"/>
    </vehicle>
    <vehicle id="233" depart="23.30">
        <route edges="d1GiaoLo GiaoLod3"/>
    </vehicle>
    <vehicle id="234" depart="23.40">
        <route edges="d3GiaoLo GiaoLod1"/>
    </vehicle>
    <vehicle id="235" depart="23.50">
        <route edges="d2GiaoLo GiaoLod3"/>
    </vehicle>
    <vehicle id="236" depart="23.60">
        <route edges="d2GiaoLo GiaoLod1"/>
    </vehicle>
    <vehicle id="237" depart="23.70">
        <route edges="d2GiaoLo GiaoLod4"/>
    </vehicle>
    <vehicle id="240" depart="24.00">
        <route edges="d2GiaoLo GiaoLod1"/>
    </vehicle>
    <vehicle id="241" depart="24.10">
        <route edges="d2GiaoLo GiaoLod4"/>
    </vehicle>
    <vehicle id="243" depart="24.30">
        <route edges="d2GiaoLo GiaoLod3"/>
    </vehicle>
    <vehicle id="246" depart="24.60">
        <route edges="d2GiaoLo GiaoLod1"/>
    </vehicle>
    <vehicle id="247" depart="24.70">
        <route edges="d2GiaoLo GiaoLod3"/>
    </vehicle>
    <vehicle id="248" depart="24.80">
        <route edges="d2GiaoLo GiaoLod1"/>
    </vehicle>
    <vehicle id="249" depart="24.90">
        <route edges="d2GiaoLo GiaoLod1"/>
    </vehicle>
    <vehicle id="250" depart="25.00">
        <route edges="d3GiaoLo GiaoLod1"/>
    </vehicle>
    <vehicle id="251" depart="25.10">
        <route edges="d2GiaoLo GiaoLod3"/>
    </vehicle>
    <vehicle id="252" depart="25.20">
        <route edges="d1GiaoLo GiaoLod3"/>
    </vehicle>
    <vehicle id="253" depart="25.30">
        <route edges="d1GiaoLo GiaoLod2"/>
    </vehicle>
    <vehicle id="254" depart="25.40">
        <route edges="d1GiaoLo GiaoLod2"/>
    </vehicle>
    <vehicle id="255" depart="25.50">
        <route edges="d1GiaoLo GiaoLod2"/>
    </vehicle>
    <vehicle id="256" depart="25.60">
        <route edges="d4GiaoLo GiaoLod2"/>
    </vehicle>
    <vehicle id="258" depart="25.80">
        <route edges="d2GiaoLo GiaoLod1"/>
    </vehicle>
    <vehicle id="259" depart="25.90">
        <route edges="d1GiaoLo GiaoLod3"/>
    </vehicle>
    <vehicle id="260" depart="26.00">
        <route edges="d4GiaoLo GiaoLod2"/>
    </vehicle>
    <vehicle id="261" depart="26.10">
        <route edges="d3GiaoLo GiaoLod4"/>
    </vehicle>
    <vehicle id="262" depart="26.20">
        <route edges="d3GiaoLo GiaoLod4"/>
    </vehicle>
    <vehicle id="263" depart="26.30">
        <route edges="d4GiaoLo GiaoLod1"/>
    </vehicle>
    <vehicle id="265" depart="26.50">
        <route edges="d1GiaoLo GiaoLod3"/>
    </vehicle>
    <vehicle id="266" depart="26.60">
        <route edges="d3GiaoLo GiaoLod1"/>
    </vehicle>
    <vehicle id="267" depart="26.70">
        <route edges="d3GiaoLo GiaoLod4"/>
    </vehicle>
    <vehicle id="268" depart="26.80">
        <route edges="d1GiaoLo GiaoLod3"/>
    </vehicle>
    <vehicle id="269" depart="26.90">
        <route edges="d3GiaoLo GiaoLod1"/>
    </vehicle>
    <vehicle id="272" depart="27.20">
        <route edges="d2GiaoLo GiaoLod3"/>
    </vehicle>
    <vehicle id="273" depart="27.30">
        <route edges="d4GiaoLo GiaoLod2"/>
    </vehicle>
    <vehicle id="274" depart="27.40">
        <route edges="d3GiaoLo GiaoLod1"/>
    </vehicle>
    <vehicle id="276" depart="27.60">
        <route edges="d1GiaoLo GiaoLod4"/>
    </vehicle>
    <vehicle id="277" depart="27.70">
        <route edges="d4GiaoLo GiaoLod3"/>
    </vehicle>
    <vehicle id="278" depart="27.80">
        <route edges="d1GiaoLo GiaoLod4"/>
    </vehicle>
    <vehicle id="279" depart="27.90">
        <route edges="d4GiaoLo GiaoLod2"/>
    </vehicle>
    <vehicle id="281" depart="28.10">
        <route edges="d3GiaoLo GiaoLod2"/>
    </vehicle>
    <vehicle id="283" depart="28.30">
        <route edges="d1GiaoLo GiaoLod4"/>
    </vehicle>
    <vehicle id="284" depart="28.40">
        <route edges="d3GiaoLo GiaoLod4"/>
    </vehicle>
    <vehicle id="285" depart="28.50">
        <route edges="d3GiaoLo GiaoLod2"/>
    </vehicle>
    <vehicle id="286" depart="28.60">
        <route edges="d3GiaoLo GiaoLod4"/>
    </vehicle>
    <vehicle id="287" depart="28.70">
        <route edges="d2GiaoLo GiaoLod4"/>
    </vehicle>
    <vehicle id="288" depart="28.80">
        <route edges="d3GiaoLo GiaoLod2"/>
    </vehicle>
    <vehicle id="289" depart="28.90">
        <route edges="d2GiaoLo GiaoLod3"/>
    </vehicle>
    <vehicle id="290" depart="29.00">
        <route edges="d2GiaoLo GiaoLod4"/>
    </vehicle>
    <vehicle id="291" depart="29.10">
        <route edges="d4GiaoLo GiaoLod1"/>
    </vehicle>
    <vehicle id="292" depart="29.20">
        <route edges="d4GiaoLo GiaoLod1"/>
    </vehicle>
    <vehicle id="293" depart="29.30">
        <route edges="d2GiaoLo GiaoLod3"/>
    </vehicle>
    <vehicle id="294" depart="29.40">
        <route edges="d2GiaoLo GiaoLod1"/>
    </vehicle>
    <vehicle id="295" depart="29.50">
        <route edges="d4GiaoLo GiaoLod1"/>
    </vehicle>
    <vehicle id="296" depart="29.60">
        <route edges="d1GiaoLo GiaoLod4"/>
    </vehicle>
    <vehicle id="297" depart="29.70">
        <route edges="d2GiaoLo GiaoLod4"/>
    </vehicle>
    <vehicle id="298" depart="29.80">
        <route edges="d3GiaoLo GiaoLod2"/>
    </vehicle>
    <vehicle id="299" depart="29.90">
        <route edges="d1GiaoLo GiaoLod4"/>
    </vehicle>
    <vehicle id="300" depart="30.00">
        <route edges="d1GiaoLo GiaoLod3"/>
    </vehicle>
    <vehicle id="301" depart="30.10">
        <route edges="d2GiaoLo GiaoLod4"/>
    </vehicle>
    <vehicle id="303" depart="30.30">
        <route edges="d2GiaoLo GiaoLod4"/>
    </vehicle>
    <vehicle id="305" depart="30.50">
        <route edges="d3GiaoLo GiaoLod2"/>
    </vehicle>
    <vehicle id="306" depart="30.60">
        <route edges="d3GiaoLo GiaoLod2"/>
    </vehicle>
    <vehicle id="307" depart="30.70">
        <route edges="d3GiaoLo GiaoLod2"/>
    </vehicle>
    <vehicle id="308" depart="30.80">
        <route edges="d3GiaoLo GiaoLod2"/>
    </vehicle>
    <vehicle id="309" depart="30.90">
        <route edges="d3GiaoLo GiaoLod2"/>
    </vehicle>
    <vehicle id="310" depart="31.00">
        <route edges="d2GiaoLo GiaoLod1"/>
    </vehicle>
    <vehicle id="312" depart="31.20">
        <route edges="d3GiaoLo GiaoLod4"/>
    </vehicle>
    <vehicle id="314" depart="31.40">
        <route edges="d2GiaoLo GiaoLod3"/>
    </vehicle>
    <vehicle id="315" depart="31.50">
        <route edges="d4GiaoLo GiaoLod3"/>
    </vehicle>
    <vehicle id="316" depart="31.60">
        <route edges="d2GiaoLo GiaoLod1"/>
    </vehicle>
    <vehicle id="319" depart="31.90">
        <route edges="d3GiaoLo GiaoLod2"/>
    </vehicle>
    <vehicle id="320" depart="32.00">
        <route edges="d4GiaoLo GiaoLod3"/>
    </vehicle>
    <vehicle id="321" depart="32.10">
        <route edges="d3GiaoLo GiaoLod1"/>
    </vehicle>
    <vehicle id="322" depart="32.20">
        <route edges="d4GiaoLo GiaoLod2"/>
    </vehicle>
    <vehicle id="323" depart="32.30">
        <route edges="d4GiaoLo GiaoLod3"/>
    </vehicle>
    <vehicle id="326" depart="32.60">
        <route edges="d4GiaoLo GiaoLod2"/>
    </vehicle>
    <vehicle id="327" depart="32.70">
        <route edges="d4GiaoLo GiaoLod2"/>
    </vehicle>
    <vehicle id="328" depart="32.80">
        <route edges="d1GiaoLo GiaoLod3"/>
    </vehicle>
    <vehicle id="330" depart="33.00">
        <route edges="d3GiaoLo GiaoLod2"/>
    </vehicle>
    <vehicle id="331" depart="33.10">
        <route edges="d4GiaoLo GiaoLod1"/>
    </vehicle>
    <vehicle id="332" depart="33.20">
        <route edges="d4GiaoLo GiaoLod3"/>
    </vehicle>
    <vehicle id="333" depart="33.30">
        <route edges="d4GiaoLo GiaoLod1"/>
    </vehicle>
    <vehicle id="334" depart="33.40">
        <route edges="d3GiaoLo GiaoLod2"/>
    </vehicle>
    <vehicle id="335" depart="33.50">
        <route edges="d2GiaoLo GiaoLod4"/>
    </vehicle>
    <vehicle id="336" depart="33.60">
        <route edges="d4GiaoLo GiaoLod2"/>
    </vehicle>
    <vehicle id="338" depart="33.80">
        <route edges="d3GiaoLo GiaoLod4"/>
    </vehicle>
    <vehicle id="340" depart="34.00">
        <route edges="d3GiaoLo GiaoLod1"/>
    </vehicle>
    <vehicle id="342" depart="34.20">
        <route edges="d1GiaoLo GiaoLod2"/>
    </vehicle>
    <vehicle id="343" depart="34.30">
        <route edges="d3GiaoLo GiaoLod2"/>
    </vehicle>
    <vehicle id="344" depart="34.40">
        <route edges="d1GiaoLo GiaoLod3"/>
    </vehicle>
    <vehicle id="345" depart="34.50">
        <route edges="d3GiaoLo GiaoLod2"/>
    </vehicle>
    <vehicle id="346" depart="34.60">
        <route edges="d3GiaoLo GiaoLod4"/>
    </vehicle>
    <vehicle id="347" depart="34.70">
        <route edges="d4GiaoLo GiaoLod3"/>
    </vehicle>
    <vehicle id="348" depart="34.80">
        <route edges="d3GiaoLo GiaoLod4"/>
    </vehicle>
    <vehicle id="349" depart="34.90">
        <route edges="d2GiaoLo GiaoLod3"/>
    </vehicle>
    <vehicle id="350" depart="35.00">
        <route edges="d3GiaoLo GiaoLod4"/>
    </vehicle>
    <vehicle id="351" depart="35.10">
        <route edges="d4GiaoLo GiaoLod1"/>
    </vehicle>
    <vehicle id="352" depart="35.20">
        <route edges="d1GiaoLo GiaoLod2"/>
    </vehicle>
    <vehicle id="354" depart="35.40">
        <route edges="d2GiaoLo GiaoLod1"/>
    </vehicle>
    <vehicle id="356" depart="35.60">
        <route edges="d4GiaoLo GiaoLod3"/>
    </vehicle>
    <vehicle id="357" depart="35.70">
        <route edges="d2GiaoLo GiaoLod1"/>
    </vehicle>
    <vehicle id="358" depart="35.80">
        <route edges="d1GiaoLo GiaoLod2"/>
    </vehicle>
    <vehicle id="360" depart="36.00">
        <route edges="d1GiaoLo GiaoLod4"/>
    </vehicle>
    <vehicle id="361" depart="36.10">
        <route edges="d4GiaoLo GiaoLod3"/>
    </vehicle>
    <vehicle id="363" depart="36.30">
        <route edges="d3GiaoLo GiaoLod2"/>
    </vehicle>
    <vehicle id="364" depart="36.40">
        <route edges="d1GiaoLo GiaoLod4"/>
    </vehicle>
    <vehicle id="365" depart="36.50">
        <route edges="d2GiaoLo GiaoLod3"/>
    </vehicle>
    <vehicle id="366" depart="36.60">
        <route edges="d4GiaoLo GiaoLod1"/>
    </vehicle>
    <vehicle id="368" depart="36.80">
        <route edges="d2GiaoLo GiaoLod1"/>
    </vehicle>
    <vehicle id="370" depart="37.00">
        <route edges="d3GiaoLo GiaoLod4"/>
    </vehicle>
    <vehicle id="371" depart="37.10">
        <route edges="d2GiaoLo GiaoLod3"/>
    </vehicle>
    <vehicle id="372" depart="37.20">
        <route edges="d2GiaoLo GiaoLod4"/>
    </vehicle>
    <vehicle id="373" depart="37.30">
        <route edges="d4GiaoLo GiaoLod3"/>
    </vehicle>
    <vehicle id="375" depart="37.50">
        <route edges="d2GiaoLo GiaoLod4"/>
    </vehicle>
    <vehicle id="376" depart="37.60">
        <route edges="d2GiaoLo GiaoLod3"/>
    </vehicle>
    <vehicle id="377" depart="37.70">
        <route edges="d4GiaoLo GiaoLod3"/>
    </vehicle>
    <vehicle id="378" depart="37.80">
        <route edges="d3GiaoLo GiaoLod2"/>
    </vehicle>
    <vehicle id="379" depart="37.90">
        <route edges="d1GiaoLo GiaoLod2"/>
    </vehicle>
    <vehicle id="380" depart="38.00">
        <route edges="d4GiaoLo GiaoLod3"/>
    </vehicle>
    <vehicle id="381" depart="38.10">
        <route edges="d4GiaoLo GiaoLod1"/>
    </vehicle>
    <vehicle id="382" depart="38.20">
        <route edges="d3GiaoLo GiaoLod4"/>
    </vehicle>
    <vehicle id="383" depart="38.30">
        <route edges="d2GiaoLo GiaoLod3"/>
    </vehicle>
    <vehicle id="384" depart="38.40">
        <route edges="d1GiaoLo GiaoLod4"/>
    </vehicle>
    <vehicle id="385" depart="38.50">
        <route edges="d3GiaoLo GiaoLod1"/>
    </vehicle>
    <vehicle id="386" depart="38.60">
        <route edges="d1GiaoLo GiaoLod3"/>
    </vehicle>
    <vehicle id="387" depart="38.70">
        <route edges="d3GiaoLo GiaoLod1"/>
    </vehicle>
    <vehicle id="389" depart="38.90">
        <route edges="d2GiaoLo GiaoLod1"/>
    </vehicle>
    <vehicle id="390" depart="39.00">
        <route edges="d4GiaoLo GiaoLod2"/>
    </vehicle>
    <vehicle id="392" depart="39.20">
        <route edges="d2GiaoLo GiaoLod4"/>
    </vehicle>
    <vehicle id="393" depart="39.30">
        <route edges="d4GiaoLo GiaoLod1"/>
    </vehicle>
    <vehicle id="394" depart="39.40">
        <route edges="d3GiaoLo GiaoLod2"/>
    </vehicle>
    <vehicle id="395" depart="39.50">
        <route edges="d4GiaoLo GiaoLod3"/>
    </vehicle>