<?xml version="1.0" encoding="UTF-8"?>
<routes xmlns:xsi="http://www.w3.org/2001/XMLSchema-instance" xsi:noNamespaceSchemaLocation="http://sumo.dlr.de/xsd/routes_file.xsd">
    <vType id="car" />
    <route id="route0" edges="d2GiaoLo GiaoLod1" />
    <flow id="flow0" type="car" route="route0" begin="0" end="1000" number="100" period="10" />
    

    <route id="route1" edges="d2GiaoLo GiaoLod4" />
    <flow id="flow1" type="car" route="route1" begin="0" end="1000" number="100" period="10" />


    <route id="route2" edges="d2GiaoLo GiaoLod3" />
    <flow id="flow2" type="car" route="route2" begin="0" end="1000" number="100" period="10" />


    <route id="route3" edges="d3GiaoLo GiaoLod1" />
    <flow id="flow3" type="car" route="route3" begin="0" end="1000" number="100" period="10" />
    

    <route id="route4" edges="d3GiaoLo GiaoLod4" />
    <flow id="flow4" type="car" route="route4" begin="0" end="1000" number="100" period="10" />
    

    <route id="route5" edges="d3GiaoLo GiaoLod2" />
    <flow id="flow5" type="car" route="route5" begin="0" end="1000" number="100" period="10" />
    
    
    <route id="route6" edges="d1GiaoLo GiaoLod4" />
    <flow id="flow6" type="car" route="route6" begin="0" end="1000" number="2000" />

   
    <route id="route7" edges="d1GiaoLo GiaoLod2" />
    <flow id="flow7" type="car" route="route7" begin="0" end="1000" number="2000" />

  
    <route id="route8" edges="d1GiaoLo GiaoLod3" />
    <flow id="flow8" type="car" route="route8" begin="0" end="1000" number="2000" />

    
    <route id="route9" edges="d4GiaoLo GiaoLod1" />
    <flow id="flow9" type="car" route="route9" begin="0" end="1000" number="2000" />

    
    <route id="route10" edges="d4GiaoLo GiaoLod2" />
    <flow id="flow10" type="car" route="route10" begin="0" end="1000" number="2000" />

 
    <route id="route11" edges="d4GiaoLo GiaoLod3" />
    <flow id="flow11" type="car" route="route11" begin="0" end="1000" number="2000" />

</routes>