<?xml version="1.0" encoding="UTF-8"?>

<!-- generated on 2023-07-28 23:44:10 by Eclipse SUMO netconvert Version 1.18.0
<configuration xmlns:xsi="http://www.w3.org/2001/XMLSchema-instance" xsi:noNamespaceSchemaLocation="http://sumo.dlr.de/xsd/netconvertConfiguration.xsd">

    <input>
        <osm-files value="vande.osm"/>
    </input>

    <output>
        <output-file value="vande.net.xml"/>
    </output>

    <projection>
        <proj.utm value="true"/>
    </projection>

</configuration>
-->

<net version="1.16" junctionCornerDetail="5" limitTurnSpeed="5.50" xmlns:xsi="http://www.w3.org/2001/XMLSchema-instance" xsi:noNamespaceSchemaLocation="http://sumo.dlr.de/xsd/net_file.xsd">

    <location netOffset="-693800.80,-1198709.50" convBoundary="0.00,0.00,1372.88,1338.30" origBoundary="106.772799,10.838710,106.785387,10.850759" projParameter="+proj=utm +zone=48 +ellps=WGS84 +datum=WGS84 +units=m +no_defs"/>

    <type id="highway.residential" priority="3" numLanes="1" speed="13.89" disallow="tram rail_urban rail rail_electric rail_fast ship" oneway="0"/>
    <type id="highway.secondary" priority="11" numLanes="1" speed="27.78" disallow="tram rail_urban rail rail_electric rail_fast ship" oneway="0"/>
    <type id="highway.service" priority="1" numLanes="1" speed="5.56" allow="pedestrian delivery bicycle" oneway="0"/>
    <type id="highway.tertiary" priority="10" numLanes="1" speed="22.22" disallow="tram rail_urban rail rail_electric rail_fast ship" oneway="0"/>
    <type id="highway.tertiary_link" priority="5" numLanes="1" speed="22.22" disallow="tram rail_urban rail rail_electric rail_fast ship" oneway="0"/>

    <edge id=":366369604_0" function="internal">
        <lane id=":366369604_0_0" index="0" disallow="tram rail_urban rail rail_electric rail_fast ship" speed="3.65" length="4.67" shape="924.16,1338.86 922.99,1339.71 922.10,1339.80 921.49,1339.15 921.15,1337.75"/>
    </edge>
    <edge id=":366370851_0" function="internal">
        <lane id=":366370851_0_0" index="0" disallow="tram rail_urban rail rail_electric rail_fast ship" speed="6.94" length="9.58" shape="974.64,680.97 972.82,679.32 970.79,678.62 968.55,678.86 966.10,680.05"/>
    </edge>
    <edge id=":366370851_1" function="internal">
        <lane id=":366370851_1_0" index="0" disallow="tram rail_urban rail rail_electric rail_fast ship" speed="22.22" length="14.43" shape="974.64,680.97 965.59,669.73"/>
    </edge>
    <edge id=":366370851_2" function="internal">
        <lane id=":366370851_2_0" index="0" disallow="tram rail_urban rail rail_electric rail_fast ship" speed="3.65" length="1.44" shape="974.64,680.97 974.51,679.53"/>
    </edge>
    <edge id=":366370851_9" function="internal">
        <lane id=":366370851_9_0" index="0" disallow="tram rail_urban rail rail_electric rail_fast ship" speed="3.65" length="3.23" shape="974.51,679.53 974.88,678.72 975.75,678.53 977.13,678.96"/>
    </edge>
    <edge id=":366370851_3" function="internal">
        <lane id=":366370851_3_0" index="0" disallow="tram rail_urban rail rail_electric rail_fast ship" speed="22.22" length="14.42" shape="968.08,667.72 977.13,678.96"/>
    </edge>
    <edge id=":366370851_4" function="internal">
        <lane id=":366370851_4_0" index="0" disallow="tram rail_urban rail rail_electric rail_fast ship" speed="7.83" length="4.06" shape="968.08,667.72 970.15,671.22"/>
    </edge>
    <edge id=":366370851_5" function="internal">
        <lane id=":366370851_5_0" index="0" disallow="tram rail_urban rail rail_electric rail_fast ship" speed="3.65" length="1.44" shape="968.08,667.72 968.21,669.16"/>
    </edge>
    <edge id=":366370851_10" function="internal">
        <lane id=":366370851_10_0" index="0" disallow="tram rail_urban rail rail_electric rail_fast ship" speed="7.83" length="10.54" shape="970.15,671.22 970.50,674.44 969.15,677.38 966.10,680.05"/>
    </edge>
    <edge id=":366370851_11" function="internal">
        <lane id=":366370851_11_0" index="0" disallow="tram rail_urban rail rail_electric rail_fast ship" speed="3.65" length="3.23" shape="968.21,669.16 967.84,669.97 966.96,670.16 965.59,669.73"/>
    </edge>
    <edge id=":366370851_6" function="internal">
        <lane id=":366370851_6_0" index="0" disallow="tram rail_urban rail rail_electric rail_fast ship" speed="6.30" length="9.04" shape="964.36,677.36 966.25,675.71 967.09,673.89 966.87,671.89 965.59,669.73"/>
    </edge>
    <edge id=":366370851_7" function="internal">
        <lane id=":366370851_7_0" index="0" disallow="tram rail_urban rail rail_electric rail_fast ship" speed="8.36" length="14.36" shape="964.36,677.36 967.98,675.63 971.32,675.32 974.37,676.43 977.13,678.96"/>
    </edge>
    <edge id=":366370851_8" function="internal">
        <lane id=":366370851_8_0" index="0" disallow="tram rail_urban rail rail_electric rail_fast ship" speed="3.65" length="4.67" shape="964.36,677.36 965.80,677.38 966.57,677.84 966.67,678.73 966.10,680.05"/>
    </edge>
    <edge id=":366387227_0" function="internal">
        <lane id=":366387227_0_0" index="0" disallow="tram rail_urban rail rail_electric rail_fast ship" speed="3.65" length="4.67" shape="798.97,108.20 798.84,106.76 799.21,105.95 800.09,105.76 801.46,106.19"/>
    </edge>
    <edge id=":366403249_0" function="internal">
        <lane id=":366403249_0_0" index="0" disallow="tram rail_urban rail rail_electric rail_fast ship" speed="7.70" length="10.55" shape="944.02,642.76 941.90,640.41 939.69,639.01 937.40,638.56 935.01,639.06"/>
    </edge>
    <edge id=":366403249_1" function="internal">
        <lane id=":366403249_1_0" index="0" disallow="tram rail_urban rail rail_electric rail_fast ship" speed="7.59" length="15.38" shape="944.02,642.76 941.94,638.88 941.85,635.59 943.74,632.90 947.61,630.80"/>
    </edge>
    <edge id=":366403249_2" function="internal">
        <lane id=":366403249_2_0" index="0" disallow="tram rail_urban rail rail_electric rail_fast ship" speed="3.65" length="4.67" shape="944.02,642.76 943.95,641.32 944.36,640.52 945.24,640.37 946.60,640.86"/>
    </edge>
    <edge id=":366403249_3" function="internal">
        <lane id=":366403249_3_0" index="0" disallow="tram rail_urban rail rail_electric rail_fast ship" speed="5.99" length="9.08" shape="948.72,633.80 946.43,635.04 945.32,636.63 945.37,638.57 946.60,640.86"/>
    </edge>
    <edge id=":366403249_4" function="internal">
        <lane id=":366403249_4_0" index="0" disallow="tram rail_urban rail rail_electric rail_fast ship" speed="27.78" length="14.68" shape="948.72,633.80 935.01,639.06"/>
    </edge>
    <edge id=":366403249_5" function="internal">
        <lane id=":366403249_5_0" index="0" disallow="tram rail_urban rail rail_electric rail_fast ship" speed="3.65" length="1.44" shape="948.72,633.80 947.31,633.47"/>
    </edge>
    <edge id=":366403249_9" function="internal">
        <lane id=":366403249_9_0" index="0" disallow="tram rail_urban rail rail_electric rail_fast ship" speed="3.65" length="3.23" shape="947.31,633.47 946.66,632.86 946.76,631.97 947.61,630.80"/>
    </edge>
    <edge id=":366403249_6" function="internal">
        <lane id=":366403249_6_0" index="0" disallow="tram rail_urban rail rail_electric rail_fast ship" speed="27.78" length="14.77" shape="933.82,636.09 947.61,630.80"/>
    </edge>
    <edge id=":366403249_7" function="internal">
        <lane id=":366403249_7_0" index="0" disallow="tram rail_urban rail rail_electric rail_fast ship" speed="9.03" length="3.82" shape="933.82,636.09 937.30,635.31 937.55,635.35"/>
    </edge>
    <edge id=":366403249_8" function="internal">
        <lane id=":366403249_8_0" index="0" disallow="tram rail_urban rail rail_electric rail_fast ship" speed="3.65" length="1.44" shape="933.82,636.09 935.23,636.39"/>
    </edge>
    <edge id=":366403249_10" function="internal">
        <lane id=":366403249_10_0" index="0" disallow="tram rail_urban rail rail_electric rail_fast ship" speed="9.03" length="10.99" shape="937.55,635.35 940.60,635.85 943.69,637.70 946.60,640.86"/>
    </edge>
    <edge id=":366403249_11" function="internal">
        <lane id=":366403249_11_0" index="0" disallow="tram rail_urban rail rail_electric rail_fast ship" speed="3.65" length="3.23" shape="935.23,636.39 935.90,636.98 935.83,637.87 935.01,639.06"/>
    </edge>
    <edge id=":366438163_0" function="internal">
        <lane id=":366438163_0_0" index="0" disallow="tram rail_urban rail rail_electric rail_fast ship" speed="3.65" length="4.67" shape="254.60,1048.19 253.16,1048.23 252.37,1047.81 252.23,1046.93 252.74,1045.58"/>
    </edge>
    <edge id=":366447659_0" function="internal">
        <lane id=":366447659_0_0" index="0" disallow="tram rail_urban rail rail_electric rail_fast ship" speed="3.65" length="4.67" shape="1373.32,640.01 1374.25,641.11 1374.41,641.99 1373.81,642.65 1372.43,643.08"/>
    </edge>
    <edge id=":366479182_0" function="internal">
        <lane id=":366479182_0_0" index="0" disallow="tram rail_urban rail rail_electric rail_fast ship" speed="3.65" length="4.67" shape="-0.31,1.57 -1.33,0.55 -1.57,-0.31 -1.02,-1.02 0.31,-1.57"/>
    </edge>
    <edge id=":5755527822_0" function="internal">
        <lane id=":5755527822_0_0" index="0" allow="pedestrian delivery bicycle" speed="3.65" length="4.67" shape="997.80,802.82 998.51,804.08 998.51,804.97 997.79,805.51 996.36,805.68"/>
    </edge>
    <edge id=":5755527847_0" function="internal">
        <lane id=":5755527847_0_0" index="0" allow="pedestrian delivery bicycle" speed="3.65" length="4.67" shape="798.61,745.52 797.16,745.56 796.38,745.13 796.24,744.25 796.77,742.90"/>
    </edge>
    <edge id=":5755576894_0" function="internal">
        <lane id=":5755576894_0_0" index="0" disallow="tram rail_urban rail rail_electric rail_fast ship" speed="13.89" length="14.87" shape="932.98,708.67 930.69,705.72 928.50,702.74 926.37,699.70 924.32,696.59"/>
    </edge>
    <edge id=":5755576894_1" function="internal">
        <lane id=":5755576894_1_0" index="0" disallow="tram rail_urban rail rail_electric rail_fast ship" speed="7.84" length="4.25" shape="932.98,708.67 930.94,705.18 930.92,704.98"/>
    </edge>
    <edge id=":5755576894_2" function="internal">
        <lane id=":5755576894_2_0" index="0" disallow="tram rail_urban rail rail_electric rail_fast ship" speed="3.65" length="1.44" shape="932.98,708.67 932.86,707.24"/>
    </edge>
    <edge id=":5755576894_9" function="internal">
        <lane id=":5755576894_9_0" index="0" disallow="tram rail_urban rail rail_electric rail_fast ship" speed="7.84" length="10.32" shape="930.92,704.98 930.60,701.96 931.96,699.02 935.01,696.36"/>
    </edge>
    <edge id=":5755576894_10" function="internal">
        <lane id=":5755576894_10_0" index="0" disallow="tram rail_urban rail rail_electric rail_fast ship" speed="3.65" length="3.23" shape="932.86,707.24 933.24,706.43 934.11,706.24 935.48,706.69"/>
    </edge>
    <edge id=":5755576894_3" function="internal">
        <lane id=":5755576894_3_0" index="0" disallow="tram rail_urban rail rail_electric rail_fast ship" speed="6.31" length="9.04" shape="936.75,699.04 934.85,700.69 934.01,702.52 934.22,704.52 935.48,706.69"/>
    </edge>
    <edge id=":5755576894_4" function="internal">
        <lane id=":5755576894_4_0" index="0" disallow="tram rail_urban rail rail_electric rail_fast ship" speed="8.06" length="14.45" shape="936.75,699.04 933.10,700.75 929.81,700.91 926.88,699.52 924.32,696.59"/>
    </edge>
    <edge id=":5755576894_5" function="internal">
        <lane id=":5755576894_5_0" index="0" disallow="tram rail_urban rail rail_electric rail_fast ship" speed="3.65" length="4.67" shape="936.75,699.04 935.30,699.02 934.53,698.57 934.43,697.68 935.01,696.36"/>
    </edge>
    <edge id=":5755576894_6" function="internal">
        <lane id=":5755576894_6_0" index="0" disallow="tram rail_urban rail rail_electric rail_fast ship" speed="6.58" length="9.29" shape="927.01,694.86 928.64,696.72 930.52,697.59 932.64,697.47 935.01,696.36"/>
    </edge>
    <edge id=":5755576894_7" function="internal">
        <lane id=":5755576894_7_0" index="0" disallow="tram rail_urban rail rail_electric rail_fast ship" speed="13.89" length="14.56" shape="927.01,694.86 929.04,697.93 931.10,700.88 933.23,703.78 935.48,706.69"/>
    </edge>
    <edge id=":5755576894_8" function="internal">
        <lane id=":5755576894_8_0" index="0" disallow="tram rail_urban rail rail_electric rail_fast ship" speed="3.65" length="1.44" shape="927.01,694.86 926.98,696.30"/>
    </edge>
    <edge id=":5755576894_11" function="internal">
        <lane id=":5755576894_11_0" index="0" disallow="tram rail_urban rail rail_electric rail_fast ship" speed="3.65" length="3.23" shape="926.98,696.30 926.53,697.07 925.64,697.17 924.32,696.59"/>
    </edge>
    <edge id=":5811572061_0" function="internal">
        <lane id=":5811572061_0_0" index="0" disallow="tram rail_urban rail rail_electric rail_fast ship" speed="27.78" length="14.39" shape="888.24,666.99 876.38,675.15"/>
    </edge>
    <edge id=":5811572061_1" function="internal">
        <lane id=":5811572061_1_0" index="0" disallow="tram rail_urban rail rail_electric rail_fast ship" speed="8.12" length="4.00" shape="888.24,666.99 884.80,668.68 884.63,668.69"/>
    </edge>
    <edge id=":5811572061_2" function="internal">
        <lane id=":5811572061_2_0" index="0" disallow="tram rail_urban rail rail_electric rail_fast ship" speed="3.65" length="1.44" shape="888.24,666.99 886.80,667.01"/>
    </edge>
    <edge id=":5811572061_9" function="internal">
        <lane id=":5811572061_9_0" index="0" disallow="tram rail_urban rail rail_electric rail_fast ship" speed="8.12" length="10.24" shape="884.63,668.69 881.58,668.87 878.60,667.56 875.85,664.76"/>
    </edge>
    <edge id=":5811572061_10" function="internal">
        <lane id=":5811572061_10_0" index="0" disallow="tram rail_urban rail rail_electric rail_fast ship" speed="3.65" length="3.23" shape="886.80,667.01 886.01,666.57 885.89,665.69 886.43,664.35"/>
    </edge>
    <edge id=":5811572061_3" function="internal">
        <lane id=":5811572061_3_0" index="0" disallow="tram rail_urban rail rail_electric rail_fast ship" speed="6.65" length="9.22" shape="878.41,662.85 880.21,664.68 882.14,665.54 884.21,665.43 886.43,664.35"/>
    </edge>
    <edge id=":5811572061_4" function="internal">
        <lane id=":5811572061_4_0" index="0" disallow="tram rail_urban rail rail_electric rail_fast ship" speed="7.94" length="14.33" shape="878.41,662.85 880.29,666.32 880.58,669.53 879.28,672.47 876.38,675.15"/>
    </edge>
    <edge id=":5811572061_5" function="internal">
        <lane id=":5811572061_5_0" index="0" disallow="tram rail_urban rail rail_electric rail_fast ship" speed="3.65" length="4.67" shape="878.41,662.85 878.49,664.29 878.08,665.09 877.20,665.25 875.85,664.76"/>
    </edge>
    <edge id=":5811572061_6" function="internal">
        <lane id=":5811572061_6_0" index="0" disallow="tram rail_urban rail rail_electric rail_fast ship" speed="6.43" length="9.03" shape="874.56,672.51 876.39,670.82 877.21,668.97 877.03,666.95 875.85,664.76"/>
    </edge>
    <edge id=":5811572061_7" function="internal">
        <lane id=":5811572061_7_0" index="0" disallow="tram rail_urban rail rail_electric rail_fast ship" speed="27.78" length="14.40" shape="874.56,672.51 886.43,664.35"/>
    </edge>
    <edge id=":5811572061_8" function="internal">
        <lane id=":5811572061_8_0" index="0" disallow="tram rail_urban rail rail_electric rail_fast ship" speed="3.65" length="1.44" shape="874.56,672.51 876.00,672.49"/>
    </edge>
    <edge id=":5811572061_11" function="internal">
        <lane id=":5811572061_11_0" index="0" disallow="tram rail_urban rail rail_electric rail_fast ship" speed="3.65" length="3.23" shape="876.00,672.49 876.79,672.92 876.91,673.81 876.38,675.15"/>
    </edge>
    <edge id=":5811572062_0" function="internal">
        <lane id=":5811572062_0_0" index="0" disallow="tram rail_urban rail rail_electric rail_fast ship" speed="27.78" length="12.31" shape="928.48,641.76 925.42,643.08 922.89,644.32 920.43,645.71 917.62,647.49"/>
    </edge>
    <edge id=":5811572062_1" function="internal">
        <lane id=":5811572062_1_0" index="0" disallow="tram rail_urban rail rail_electric rail_fast ship" speed="7.41" length="3.54" shape="928.48,641.76 925.04,642.58"/>
    </edge>
    <edge id=":5811572062_2" function="internal">
        <lane id=":5811572062_2_0" index="0" disallow="tram rail_urban rail rail_electric rail_fast ship" speed="3.65" length="1.44" shape="928.48,641.76 927.06,641.48"/>
    </edge>
    <edge id=":5811572062_9" function="internal">
        <lane id=":5811572062_9_0" index="0" disallow="tram rail_urban rail rail_electric rail_fast ship" speed="7.41" length="9.79" shape="925.04,642.58 922.26,641.93 920.14,639.78 918.68,636.15"/>
    </edge>
    <edge id=":5811572062_10" function="internal">
        <lane id=":5811572062_10_0" index="0" disallow="tram rail_urban rail rail_electric rail_fast ship" speed="3.65" length="3.23" shape="927.06,641.48 926.39,640.89 926.45,640.00 927.25,638.80"/>
    </edge>
    <edge id=":5811572062_3" function="internal">
        <lane id=":5811572062_3_0" index="0" disallow="tram rail_urban rail rail_electric rail_fast ship" speed="5.68" length="7.36" shape="921.86,635.66 922.67,637.68 923.83,638.88 925.36,639.25 927.25,638.80"/>
    </edge>
    <edge id=":5811572062_4" function="internal">
        <lane id=":5811572062_4_0" index="0" disallow="tram rail_urban rail rail_electric rail_fast ship" speed="8.94" length="13.52" shape="921.86,635.66 922.34,639.31 921.80,642.50 920.22,645.23 917.62,647.49"/>
    </edge>
    <edge id=":5811572062_5" function="internal">
        <lane id=":5811572062_5_0" index="0" disallow="tram rail_urban rail rail_electric rail_fast ship" speed="3.66" length="4.70" shape="921.86,635.66 921.25,636.97 920.51,637.49 919.66,637.22 918.68,636.15"/>
    </edge>
    <edge id=":5811572062_6" function="internal">
        <lane id=":5811572062_6_0" index="0" disallow="tram rail_urban rail rail_electric rail_fast ship" speed="7.69" length="9.79" shape="915.87,644.81 917.67,643.21 918.73,641.24 919.07,638.88 918.68,636.15"/>
    </edge>
    <edge id=":5811572062_7" function="internal">
        <lane id=":5811572062_7_0" index="0" disallow="tram rail_urban rail rail_electric rail_fast ship" speed="27.78" length="12.89" shape="915.87,644.81 918.77,642.99 921.40,641.50 924.11,640.17 927.25,638.80"/>
    </edge>
    <edge id=":5811572062_8" function="internal">
        <lane id=":5811572062_8_0" index="0" disallow="tram rail_urban rail rail_electric rail_fast ship" speed="3.65" length="1.44" shape="915.87,644.81 917.31,644.82"/>
    </edge>
    <edge id=":5811572062_11" function="internal">
        <lane id=":5811572062_11_0" index="0" disallow="tram rail_urban rail rail_electric rail_fast ship" speed="3.65" length="3.23" shape="917.31,644.82 918.08,645.27 918.19,646.16 917.62,647.49"/>
    </edge>
    <edge id=":6775745916_0" function="internal">
        <lane id=":6775745916_0_0" index="0" disallow="tram rail_urban rail rail_electric rail_fast ship" speed="27.78" length="0.31" shape="915.40,648.93 915.15,649.09"/>
    </edge>
    <edge id=":6775745916_1" function="internal">
        <lane id=":6775745916_1_0" index="0" disallow="tram rail_urban rail rail_electric rail_fast ship" speed="27.78" length="0.29" shape="913.41,646.40 913.66,646.24"/>
    </edge>
    <edge id=":6775745920_0" function="internal">
        <lane id=":6775745920_0_0" index="0" disallow="tram rail_urban rail rail_electric rail_fast ship" speed="6.44" length="9.03" shape="903.09,663.64 901.46,661.76 899.64,660.87 897.61,660.98 895.38,662.08"/>
    </edge>
    <edge id=":6775745920_1" function="internal">
        <lane id=":6775745920_1_0" index="0" disallow="tram rail_urban rail rail_electric rail_fast ship" speed="8.02" length="14.27" shape="903.09,663.64 901.45,660.07 901.33,656.83 902.74,653.94 905.67,651.39"/>
    </edge>
    <edge id=":6775745920_2" function="internal">
        <lane id=":6775745920_2_0" index="0" disallow="tram rail_urban rail rail_electric rail_fast ship" speed="3.65" length="4.67" shape="903.09,663.64 903.12,662.19 903.57,661.42 904.46,661.33 905.78,661.90"/>
    </edge>
    <edge id=":6775745920_3" function="internal">
        <lane id=":6775745920_3_0" index="0" disallow="tram rail_urban rail rail_electric rail_fast ship" speed="6.53" length="9.11" shape="907.41,654.08 905.54,655.71 904.65,657.55 904.73,659.62 905.78,661.90"/>
    </edge>
    <edge id=":6775745920_4" function="internal">
        <lane id=":6775745920_4_0" index="0" disallow="tram rail_urban rail rail_electric rail_fast ship" speed="27.78" length="14.45" shape="907.41,654.08 895.38,662.08"/>
    </edge>
    <edge id=":6775745920_5" function="internal">
        <lane id=":6775745920_5_0" index="0" disallow="tram rail_urban rail rail_electric rail_fast ship" speed="3.65" length="1.44" shape="907.41,654.08 905.96,654.06"/>
    </edge>
    <edge id=":6775745920_9" function="internal">
        <lane id=":6775745920_9_0" index="0" disallow="tram rail_urban rail rail_electric rail_fast ship" speed="3.65" length="3.23" shape="905.96,654.06 905.19,653.60 905.10,652.71 905.67,651.39"/>
    </edge>
    <edge id=":6775745920_6" function="internal">
        <lane id=":6775745920_6_0" index="0" disallow="tram rail_urban rail rail_electric rail_fast ship" speed="27.78" length="14.54" shape="893.57,659.45 905.67,651.39"/>
    </edge>
    <edge id=":6775745920_7" function="internal">
        <lane id=":6775745920_7_0" index="0" disallow="tram rail_urban rail rail_electric rail_fast ship" speed="7.95" length="4.20" shape="893.57,659.45 897.10,657.70 897.36,657.69"/>
    </edge>
    <edge id=":6775745920_8" function="internal">
        <lane id=":6775745920_8_0" index="0" disallow="tram rail_urban rail rail_electric rail_fast ship" speed="3.65" length="1.44" shape="893.57,659.45 895.01,659.43"/>
    </edge>
    <edge id=":6775745920_10" function="internal">
        <lane id=":6775745920_10_0" index="0" disallow="tram rail_urban rail rail_electric rail_fast ship" speed="7.95" length="10.11" shape="897.36,657.69 900.31,657.53 903.20,658.93 905.78,661.90"/>
    </edge>
    <edge id=":6775745920_11" function="internal">
        <lane id=":6775745920_11_0" index="0" disallow="tram rail_urban rail rail_electric rail_fast ship" speed="3.65" length="3.23" shape="895.01,659.43 895.79,659.86 895.91,660.75 895.38,662.08"/>
    </edge>
    <edge id=":6778114907_0" function="internal">
        <lane id=":6778114907_0_0" index="0" disallow="tram rail_urban rail rail_electric rail_fast ship" speed="27.78" length="0.31" shape="959.26,629.90 958.97,630.01"/>
    </edge>
    <edge id=":6778114907_1" function="internal">
        <lane id=":6778114907_1_0" index="0" disallow="tram rail_urban rail rail_electric rail_fast ship" speed="27.78" length="0.28" shape="957.86,627.01 958.13,626.91"/>
    </edge>
    <edge id=":6778148752_0" function="internal">
        <lane id=":6778148752_0_0" index="0" disallow="tram rail_urban rail rail_electric rail_fast ship" speed="27.78" length="6.47" shape="934.64,639.21 928.66,641.68"/>
    </edge>
    <edge id=":6778148752_1" function="internal">
        <lane id=":6778148752_1_0" index="0" disallow="tram rail_urban rail rail_electric rail_fast ship" speed="3.65" length="1.44" shape="934.64,639.21 933.23,638.91"/>
    </edge>
    <edge id=":6778148752_6" function="internal">
        <lane id=":6778148752_6_0" index="0" disallow="tram rail_urban rail rail_electric rail_fast ship" speed="3.65" length="3.23" shape="933.23,638.91 932.56,638.32 932.63,637.43 933.45,636.24"/>
    </edge>
    <edge id=":6778148752_2" function="internal">
        <lane id=":6778148752_2_0" index="0" disallow="tram rail_urban rail rail_electric rail_fast ship" speed="8.27" length="7.38" shape="926.45,634.69 928.57,635.75 930.45,636.35 932.08,636.52 933.45,636.24"/>
    </edge>
    <edge id=":6778148752_3" function="internal">
        <lane id=":6778148752_3_0" index="0" disallow="tram rail_urban rail rail_electric rail_fast ship" speed="5.75" length="10.27" shape="926.45,634.69 929.61,636.84 931.03,638.72 930.71,640.33 928.66,641.68"/>
    </edge>
    <edge id=":6778148752_4" function="internal">
        <lane id=":6778148752_4_0" index="0" disallow="tram rail_urban rail rail_electric rail_fast ship" speed="27.78" length="6.51" shape="927.43,638.72 933.45,636.24"/>
    </edge>
    <edge id=":6778148752_5" function="internal">
        <lane id=":6778148752_5_0" index="0" disallow="tram rail_urban rail rail_electric rail_fast ship" speed="3.65" length="1.44" shape="927.43,638.72 928.85,639.00"/>
    </edge>
    <edge id=":6778148752_7" function="internal">
        <lane id=":6778148752_7_0" index="0" disallow="tram rail_urban rail rail_electric rail_fast ship" speed="3.65" length="3.23" shape="928.85,639.00 929.53,639.59 929.47,640.48 928.66,641.68"/>
    </edge>
    <edge id=":6778148754_0" function="internal">
        <lane id=":6778148754_0_0" index="0" disallow="tram rail_urban rail rail_electric rail_fast ship" speed="13.89" length="8.57" shape="918.63,635.95 918.03,633.49 917.74,631.77 917.61,630.03 917.49,627.49"/>
    </edge>
    <edge id=":6778148754_1" function="internal">
        <lane id=":6778148754_1_0" index="0" disallow="tram rail_urban rail rail_electric rail_fast ship" speed="5.77" length="2.60" shape="918.63,635.95 918.44,633.36"/>
    </edge>
    <edge id=":6778148754_2" function="internal">
        <lane id=":6778148754_2_0" index="0" disallow="tram rail_urban rail rail_electric rail_fast ship" speed="3.66" length="1.45" shape="918.63,635.95 919.24,634.64"/>
    </edge>
    <edge id=":6778148754_6" function="internal">
        <lane id=":6778148754_6_0" index="0" disallow="tram rail_urban rail rail_electric rail_fast ship" speed="5.77" length="8.30" shape="918.44,633.36 919.58,632.23 922.05,632.56 925.84,634.35"/>
    </edge>
    <edge id=":6778148754_7" function="internal">
        <lane id=":6778148754_7_0" index="0" disallow="tram rail_urban rail rail_electric rail_fast ship" speed="3.66" length="3.25" shape="919.24,634.64 919.98,634.12 920.83,634.40 921.81,635.47"/>
    </edge>
    <edge id=":6778148754_3" function="internal">
        <lane id=":6778148754_3_0" index="0" disallow="tram rail_urban rail rail_electric rail_fast ship" speed="8.47" length="9.10" shape="920.68,627.33 921.09,629.35 922.08,631.20 923.67,632.86 925.84,634.35"/>
    </edge>
    <edge id=":6778148754_4" function="internal">
        <lane id=":6778148754_4_0" index="0" disallow="tram rail_urban rail rail_electric rail_fast ship" speed="13.89" length="8.24" shape="920.68,627.33 920.80,629.77 920.94,631.44 921.23,633.09 921.81,635.47"/>
    </edge>
    <edge id=":6778148754_5" function="internal">
        <lane id=":6778148754_5_0" index="0" disallow="tram rail_urban rail rail_electric rail_fast ship" speed="3.65" length="1.44" shape="920.68,627.33 919.95,628.57"/>
    </edge>
    <edge id=":6778148754_8" function="internal">
        <lane id=":6778148754_8_0" index="0" disallow="tram rail_urban rail rail_electric rail_fast ship" speed="3.65" length="3.23" shape="919.95,628.57 919.17,629.01 918.35,628.65 917.49,627.49"/>
    </edge>
    <edge id=":6783754854_0" function="internal">
        <lane id=":6783754854_0_0" index="0" disallow="tram rail_urban rail rail_electric rail_fast ship" speed="13.89" length="0.30" shape="917.41,625.89 917.39,625.59"/>
    </edge>
    <edge id=":6783754854_1" function="internal">
        <lane id=":6783754854_1_0" index="0" disallow="tram rail_urban rail rail_electric rail_fast ship" speed="13.89" length="0.30" shape="920.59,625.43 920.60,625.73"/>
    </edge>
    <edge id=":8360828206_0" function="internal">
        <lane id=":8360828206_0_0" index="0" disallow="tram rail_urban rail rail_electric rail_fast ship" speed="6.75" length="9.26" shape="985.06,693.31 983.17,691.74 981.17,691.13 979.05,691.47 976.83,692.76"/>
    </edge>
    <edge id=":8360828206_1" function="internal">
        <lane id=":8360828206_1_0" index="0" disallow="tram rail_urban rail rail_electric rail_fast ship" speed="22.22" length="14.32" shape="985.06,693.31 975.79,682.39"/>
    </edge>
    <edge id=":8360828206_2" function="internal">
        <lane id=":8360828206_2_0" index="0" disallow="tram rail_urban rail rail_electric rail_fast ship" speed="3.65" length="1.44" shape="985.06,693.31 984.85,691.88"/>
    </edge>
    <edge id=":8360828206_9" function="internal">
        <lane id=":8360828206_9_0" index="0" disallow="tram rail_urban rail rail_electric rail_fast ship" speed="3.65" length="3.23" shape="984.85,691.88 985.18,691.05 986.04,690.82 987.44,691.18"/>
    </edge>
    <edge id=":8360828206_3" function="internal">
        <lane id=":8360828206_3_0" index="0" disallow="tram rail_urban rail rail_electric rail_fast ship" speed="22.22" length="14.16" shape="978.28,680.39 987.44,691.18"/>
    </edge>
    <edge id=":8360828206_4" function="internal">
        <lane id=":8360828206_4_0" index="0" disallow="tram rail_urban rail rail_electric rail_fast ship" speed="7.97" length="3.92" shape="978.28,680.39 980.28,683.76"/>
    </edge>
    <edge id=":8360828206_5" function="internal">
        <lane id=":8360828206_5_0" index="0" disallow="tram rail_urban rail rail_electric rail_fast ship" speed="3.65" length="1.44" shape="978.28,680.39 978.41,681.82"/>
    </edge>
    <edge id=":8360828206_10" function="internal">
        <lane id=":8360828206_10_0" index="0" disallow="tram rail_urban rail rail_electric rail_fast ship" speed="7.97" length="10.35" shape="980.28,683.76 980.71,686.94 979.56,689.94 976.83,692.76"/>
    </edge>
    <edge id=":8360828206_11" function="internal">
        <lane id=":8360828206_11_0" index="0" disallow="tram rail_urban rail rail_electric rail_fast ship" speed="3.65" length="3.23" shape="978.41,681.82 978.04,682.64 977.16,682.83 975.79,682.39"/>
    </edge>